*HEADING
**
*INCLUDE, input=02121938L1_105_233_QUAEQ_c5_Cort_tet.inp
*INCLUDE, input=02121938L1_105_233_QUAEQ_c5.inp
**
**************************************************************************
**************************************************************************
**
**
*ORIENTATION, NAME=ORIENT
1., 0., 0., 0., 1., 0.
1, 0.
**
*BOUNDARY, TYPE=DISPLACEMENT
ALL_NODE_T, 1, 3, 0.0
**
**nodes, elements and 2D surfaces definition
**definition of the LVDTs position and of the nodesets
*NODE
***
30000000, 27.4818754716021, 20.2812113307378  , 0
10000000, 27.4818754716021, 20.2812113307378  , -26.55
10000001, 27.4818754716021, -47.2181868638607, 0.00
10000002, 85.9391113965244, 54.030910428037, 0.00
10000003, -30.9753604533202, 54.030910428037, 0.00
***
***
*NSET, NSET=NodLoadPlate
10000001, 10000002, 10000003
*NSET, NSET=NodElementLoadPlate
10000001, 10000002, 10000003, 10000000
***
*NSET, NSET=BallCenter
10000000
*NSET, NSET=RefNode
30000000
***
**
*NSET, NSET=LVDTs
10000001, 10000002, 10000003
*NSET, NSET=LVDTA
10000001
*NSET, NSET=LVDTB
10000002
*NSET, NSET=LVDTC
10000003
**definition of the element used to load the model
***
*ELEMENT, TYPE = C3D4
20000001, 10000001, 10000003, 10000002, 10000000
**
***
*ELSET, ELSET = ElLoadPlate
20000001
**
**definition of the surfaces that will be used in the contact
*SURFACE, NAME = LoadPlate, TYPE = ELEMENT
ElLoadPlate, S1
**
*NSET, NSET=CONTACTSURFACE
ALL_NODE_B, PERIPHERY
**
*SURFACE, NAME = LoadedPlate, TYPE = NODE
CONTACTSURFACE
**definition of the material for the loading plate
*MATERIAL, NAME = Rigid
*ELASTIC, TYPE=ISOTROPIC
100000000, 0.3
*SOLID SECTION, ELSET= ElLoadPlate, MATERIAL=Rigid, ORIENTATION=ORIENT
1.
**
***
**definition of the amplitudes used to move the loading plate: 3 tra for each point (3x3). the amplitudes are relative to the point, therefore the shift in x any **is needed (reference system not in 0,0,0)
*AMPLITUDE, NAME = DeltaAx, DEFINITION = TABULAR, VALUE=ABSOLUTE, SMOOTH = 0.001, INPUT = 02121938L1_Ax.txt
*AMPLITUDE, NAME = DeltaAy, DEFINITION = TABULAR, VALUE=ABSOLUTE, SMOOTH = 0.001, INPUT = 02121938L1_Ay.txt
*AMPLITUDE, NAME = DeltaAz, DEFINITION = TABULAR, VALUE=ABSOLUTE, SMOOTH = 0.001, INPUT = 02121938L1_Az.txt
*AMPLITUDE, NAME = DeltaBx, DEFINITION = TABULAR, VALUE=ABSOLUTE, SMOOTH = 0.001, INPUT = 02121938L1_Bx.txt
*AMPLITUDE, NAME = DeltaBy, DEFINITION = TABULAR, VALUE=ABSOLUTE, SMOOTH = 0.001, INPUT = 02121938L1_By.txt
*AMPLITUDE, NAME = DeltaBz, DEFINITION = TABULAR, VALUE=ABSOLUTE, SMOOTH = 0.001, INPUT = 02121938L1_Bz.txt
*AMPLITUDE, NAME = DeltaCx, DEFINITION = TABULAR, VALUE=ABSOLUTE, SMOOTH = 0.001, INPUT = 02121938L1_Cx.txt
*AMPLITUDE, NAME = DeltaCy, DEFINITION = TABULAR, VALUE=ABSOLUTE, SMOOTH = 0.001, INPUT = 02121938L1_Cy.txt
*AMPLITUDE, NAME = DeltaCz, DEFINITION = TABULAR, VALUE=ABSOLUTE, SMOOTH = 0.001, INPUT = 02121938L1_Cz.txt
***
**definition of contact and surface behavior: high friction coeff
*SURFACE INTERACTION, NAME = inter
*FRICTION
0.8
*SURFACE BEHAVIOR, AUGMENTED LAGRANGE
*CONTACT PAIR, INTERACTION = inter, SMALL SLIDING, TYPE = NODE TO SURFACE
LoadedPlate, LoadPlate
**
****couple the loading element with the reference node for applying the rotations
***COUPLING, CONSTRAINT NAME=KinCoupling, REF NODE=RefNode, SURFACE=LoadPlate
***KINEMATIC
**1, 5
**until the displacement computed from the force at the beginning of the Elastic range divided by the slope computed from models without rotation
*STEP,AMPLITUDE=RAMP,UNSYMM=YES,INC=1000,NLGEOM=YES
*STATIC
0.25, 1., 5e-08, 0.25
*BOUNDARY, TYPE=DISPLACEMENT
NodElementLoadPlate, 1, 2, 0.0
NodElementLoadPlate, 3, 3, 0.024
*NODE FILE, NSET=NodLoadPlate
U, 
RF,
*END STEP
**
**application of the new BC
*STEP, AMPLITUDE=RAMP, UNSYMM=YES,INC=5000,NLGEOM=YES
*STATIC
0.05, 94.28, 1e-06, 0.1
**
*BOUNDARY,OP=NEW, TYPE=DISPLACEMENT, AMPLITUDE = DeltaAx
LVDTA, 1, 1
*BOUNDARY,OP=NEW, TYPE=DISPLACEMENT, AMPLITUDE = DeltaAy
LVDTA, 2, 2
*BOUNDARY,OP=NEW, TYPE=DISPLACEMENT, AMPLITUDE = DeltaAz
LVDTA, 3, 3
**
*BOUNDARY,OP=NEW, TYPE=DISPLACEMENT, AMPLITUDE = DeltaBx
LVDTB, 1, 1
*BOUNDARY,OP=NEW, TYPE=DISPLACEMENT, AMPLITUDE = DeltaBy
LVDTB, 2, 2
*BOUNDARY,OP=NEW, TYPE=DISPLACEMENT, AMPLITUDE = DeltaBz
LVDTB, 3, 3
**
*BOUNDARY,OP=NEW, TYPE=DISPLACEMENT, AMPLITUDE = DeltaCx
LVDTC, 1, 1
*BOUNDARY,OP=NEW, TYPE=DISPLACEMENT, AMPLITUDE = DeltaCy
LVDTC, 2, 2
*BOUNDARY,OP=NEW, TYPE=DISPLACEMENT, AMPLITUDE = DeltaCz
LVDTC, 3, 3
**
*BOUNDARY,OP=NEW, TYPE=DISPLACEMENT
ALL_NODE_T, 1, 3, 0.0
**
**writing the output in the main odb and in the history
*OUTPUT,FIELD,FREQUENCY=10
*ELEMENT OUTPUT
SDV2,
SDV22,
*OUTPUT,FIELD, FREQUENCY=1
*NODE OUTPUT
U,
RF, 
*OUTPUT,FIELD, FREQUENCY=1
*NODE OUTPUT, NSET=NodLoadPlate
U, 
RF,
*OUTPUT,FIELD, FREQUENCY=1
*NODE OUTPUT, NSET=ALL_NODE_T
RF, 
*OUTPUT, HISTORY, FREQUENCY=1
*NODE OUTPUT, NSET=NodElementLoadPlate
U, 
RF,
*OUTPUT,FIELD, FREQUENCY=1
*NODE OUTPUT, NSET=BallCenter
U,
RF,
*NODE OUTPUT, NSET=NodLoadPlate
U, 
RF,
*END STEP
